functions/OneTimeScripts/validationAgainstOpenDSS_MATLAB/ieee123_1ph_created/results/powers21.csv
Element, Terminal, P(kW), Q(kvar),  P_Normal, Q_Normal, P_Emergency, Q_Emergency
"Line.L115"             ,   1,       777.5,       196.7,         0.0,         0.0,         0.0,         0.0
"Line.L115"             ,   2,      -775.0,      -191.4
"Line.L1"               ,   1,         4.4,         2.2,         0.0,         0.0,         0.0,         0.0
"Line.L1"               ,   2,        -4.4,        -2.2
"Line.L2"               ,   1,        21.9,        11.0,         0.0,         0.0,         0.0,         0.0
"Line.L2"               ,   2,       -21.9,       -11.0
"Line.L3"               ,   1,       739.9,       173.9,         0.0,         0.0,         0.0,         0.0
"Line.L3"               ,   2,      -738.2,      -170.3
"Line.L4"               ,   1,         8.8,         4.4,         0.0,         0.0,         0.0,         0.0
"Line.L4"               ,   2,        -8.8,        -4.4
"Line.L5"               ,   1,        13.1,         6.6,         0.0,         0.0,         0.0,         0.0
"Line.L5"               ,   2,       -13.1,        -6.6
"Line.L6"               ,   1,         8.8,         4.4,         0.0,         0.0,         0.0,         0.0
"Line.L6"               ,   2,        -8.8,        -4.4
"Line.L7"               ,   1,       733.8,       168.2,         0.0,         0.0,         0.0,         0.0
"Line.L7"               ,   2,      -732.6,      -165.8
"Line.L8"               ,   1,         4.4,         2.2,         0.0,         0.0,         0.0,         0.0
"Line.L8"               ,   2,        -4.4,        -2.2
"Line.L9"               ,   1,        21.9,        11.0,         0.0,         0.0,         0.0,         0.0
"Line.L9"               ,   2,       -21.9,       -11.0
"Line.L10"              ,   1,       706.3,       152.7,         0.0,         0.0,         0.0,         0.0
"Line.L10"              ,   2,      -704.8,      -149.4
"Line.L11"              ,   1,        13.1,         6.6,         0.0,         0.0,         0.0,         0.0
"Line.L11"              ,   2,       -13.1,        -6.6
"Line.L12"              ,   1,        21.9,        11.0,         0.0,         0.0,         0.0,         0.0
"Line.L12"              ,   2,       -21.9,       -10.9
"Line.L13"              ,   1,       245.3,       144.6,         0.0,         0.0,         0.0,         0.0
"Line.L13"              ,   2,      -244.6,      -143.2
"Line.L14"              ,   1,         8.8,         4.4,         0.0,         0.0,         0.0,         0.0
"Line.L14"              ,   2,        -8.8,        -4.4
"Line.L15"              ,   1,         4.4,         2.2,         0.0,         0.0,         0.0,         0.0
"Line.L15"              ,   2,        -4.4,        -2.2
"Line.L16"              ,   1,         8.8,         4.4,         0.0,         0.0,         0.0,         0.0
"Line.L16"              ,   2,        -8.8,        -4.4
"Line.L17"              ,   1,         4.4,         2.2,         0.0,         0.0,         0.0,         0.0
"Line.L17"              ,   2,        -4.4,        -2.2
"Line.L18"              ,   1,        17.5,         8.8,         0.0,         0.0,         0.0,         0.0
"Line.L18"              ,   2,       -17.5,        -8.8
"Line.L19"              ,   1,        61.4,        30.7,         0.0,         0.0,         0.0,         0.0
"Line.L19"              ,   2,       -61.3,       -30.7
"Line.L20"              ,   1,         8.8,         4.4,         0.0,         0.0,         0.0,         0.0
"Line.L20"              ,   2,        -8.8,        -4.4
"Line.L21"              ,   1,         8.8,         4.4,         0.0,         0.0,         0.0,         0.0
"Line.L21"              ,   2,        -8.8,        -4.4
"Line.L22"              ,   1,        52.6,        26.3,         0.0,         0.0,         0.0,         0.0
"Line.L22"              ,   2,       -52.6,       -26.3
"Line.L23"              ,   1,         8.8,         4.4,         0.0,         0.0,         0.0,         0.0
"Line.L23"              ,   2,        -8.8,        -4.4
"Line.L24"              ,   1,        43.8,        21.9,         0.0,         0.0,         0.0,         0.0
"Line.L24"              ,   2,       -43.8,       -21.9
"Line.L25"              ,   1,        17.5,         8.8,         0.0,         0.0,         0.0,         0.0
"Line.L25"              ,   2,       -17.5,        -8.8
"Line.L26"              ,   1,        26.3,        13.1,         0.0,         0.0,         0.0,         0.0
"Line.L26"              ,   2,       -26.3,       -13.1
"Line.L27"              ,   1,         8.8,         4.4,         0.0,         0.0,         0.0,         0.0
"Line.L27"              ,   2,        -8.8,        -4.4
"Line.L28"              ,   1,         8.8,         4.4,         0.0,         0.0,         0.0,         0.0
"Line.L28"              ,   2,        -8.8,        -4.4
"Line.L29"              ,   1,         8.8,         4.4,         0.0,         0.0,         0.0,         0.0
"Line.L29"              ,   2,        -8.8,        -4.4
"Line.L30"              ,   1,        17.5,         8.8,         0.0,         0.0,         0.0,         0.0
"Line.L30"              ,   2,       -17.5,        -8.8
"Line.L31"              ,   1,         8.8,         4.4,         0.0,         0.0,         0.0,         0.0
"Line.L31"              ,   2,        -8.8,        -4.4
"Line.L32"              ,   1,         0.0,        -0.0,         0.0,         0.0,         0.0,         0.0
"Line.L32"              ,   2,        -0.0,         0.0
"Line.L33"              ,   1,         4.4,         2.2,         0.0,         0.0,         0.0,         0.0
"Line.L33"              ,   2,        -4.4,        -2.2
"Line.L34"              ,   1,        13.1,         6.6,         0.0,         0.0,         0.0,         0.0
"Line.L34"              ,   2,       -13.1,        -6.6
"Line.L35"              ,   1,        17.5,         8.8,         0.0,         0.0,         0.0,         0.0
"Line.L35"              ,   2,       -17.5,        -8.8
"Line.L36"              ,   1,       139.3,        90.3,         0.0,         0.0,         0.0,         0.0
"Line.L36"              ,   2,      -139.2,       -90.1
"Line.L37"              ,   1,         8.8,         4.4,         0.0,         0.0,         0.0,         0.0
"Line.L37"              ,   2,        -8.8,        -4.4
"Line.L38"              ,   1,         8.8,         4.4,         0.0,         0.0,         0.0,         0.0
"Line.L38"              ,   2,        -8.8,        -4.4
"Line.L39"              ,   1,         4.4,         2.2,         0.0,         0.0,         0.0,         0.0
"Line.L39"              ,   2,        -4.4,        -2.2
"Line.L40"              ,   1,         4.4,         2.2,         0.0,         0.0,         0.0,         0.0
"Line.L40"              ,   2,        -4.4,        -2.2
"Line.L41"              ,   1,       134.9,        87.9,         0.0,         0.0,         0.0,         0.0
"Line.L41"              ,   2,      -134.8,       -87.8
"Line.L42"              ,   1,         8.8,         4.4,         0.0,         0.0,         0.0,         0.0
"Line.L42"              ,   2,        -8.8,        -4.4
"Line.L43"              ,   1,       121.7,        81.2,         0.0,         0.0,         0.0,         0.0
"Line.L43"              ,   2,      -121.6,       -81.1
"Line.L44"              ,   1,         8.8,         4.4,         0.0,         0.0,         0.0,         0.0
"Line.L44"              ,   2,        -8.8,        -4.4
"Line.L45"              ,   1,       112.8,        76.8,         0.0,         0.0,         0.0,         0.0
"Line.L45"              ,   2,      -112.8,       -76.7
"Line.L46"              ,   1,         4.4,         2.2,         0.0,         0.0,         0.0,         0.0
"Line.L46"              ,   2,        -4.4,        -2.2
"Line.L47"              ,   1,        46.0,        32.9,         0.0,         0.0,         0.0,         0.0
"Line.L47"              ,   2,       -46.0,       -32.9
"Line.L48"              ,   1,        43.8,        27.4,         0.0,         0.0,         0.0,         0.0
"Line.L48"              ,   2,       -43.8,       -27.4
"Line.L49"              ,   1,        13.1,         6.6,         0.0,         0.0,         0.0,         0.0
"Line.L49"              ,   2,       -13.1,        -6.6
"Line.L50"              ,   1,         4.4,         2.2,         0.0,         0.0,         0.0,         0.0
"Line.L50"              ,   2,        -4.4,        -2.2
"Line.L51"              ,   1,         0.0,        -0.0,         0.0,         0.0,         0.0,         0.0
"Line.L51"              ,   2,        -0.0,        -0.0
"Line.L52"              ,   1,       428.0,       -12.1,         0.0,         0.0,         0.0,         0.0
"Line.L52"              ,   2,      -427.6,        12.9
"Line.L53"              ,   1,       418.9,       -17.2,         0.0,         0.0,         0.0,         0.0
"Line.L53"              ,   2,      -418.6,        17.7
"Line.L54"              ,   1,         8.8,         4.4,         0.0,         0.0,         0.0,         0.0
"Line.L54"              ,   2,        -8.8,        -4.4
"Line.L55"              ,   1,       409.9,       -22.1,         0.0,         0.0,         0.0,         0.0
"Line.L55"              ,   2,      -409.3,        23.3
"Line.L56"              ,   1,         4.4,         2.2,         0.0,         0.0,         0.0,         0.0
"Line.L56"              ,   2,        -4.4,        -2.2
"Line.L57"              ,   1,         8.8,         4.4,         0.0,         0.0,         0.0,         0.0
"Line.L57"              ,   2,        -8.8,        -4.4
"Line.L58"              ,   1,       400.5,       -27.7,         0.0,         0.0,         0.0,         0.0
"Line.L58"              ,   2,      -399.3,        30.2
"Line.L59"              ,   1,         4.4,         2.2,         0.0,         0.0,         0.0,         0.0
"Line.L59"              ,   2,        -4.4,        -2.2
"Line.L60"              ,   1,         0.0,        -0.0,         0.0,         0.0,         0.0,         0.0
"Line.L60"              ,   2,        -0.0,         0.0
"Line.L61"              ,   1,        81.3,        46.0,         0.0,         0.0,         0.0,         0.0
"Line.L61"              ,   2,       -81.2,       -46.0
"Line.L62"              ,   1,        72.4,        41.6,         0.0,         0.0,         0.0,         0.0
"Line.L62"              ,   2,       -72.4,       -41.6
"Line.L63"              ,   1,        63.6,        37.2,         0.0,         0.0,         0.0,         0.0
"Line.L63"              ,   2,       -63.6,       -37.2
"Line.L64"              ,   1,        47.1,        29.5,         0.0,         0.0,         0.0,         0.0
"Line.L64"              ,   2,       -47.1,       -29.5
"Line.L65"              ,   1,        16.4,         7.6,         0.0,         0.0,         0.0,         0.0
"Line.L65"              ,   2,       -16.4,        -7.7
"Line.L66"              ,   1,        26.3,        13.2,         0.0,         0.0,         0.0,         0.0
"Line.L66"              ,   2,       -26.3,       -13.1
"Line.L67"              ,   1,       190.4,      -140.7,         0.0,         0.0,         0.0,         0.0
"Line.L67"              ,   2,      -190.3,       141.1
"Line.L68"              ,   1,        96.5,        48.3,         0.0,         0.0,         0.0,         0.0
"Line.L68"              ,   2,       -96.5,       -48.3
"Line.L69"              ,   1,        21.9,        11.0,         0.0,         0.0,         0.0,         0.0
"Line.L69"              ,   2,       -21.9,       -11.0
"Line.L70"              ,   1,        13.1,         6.6,         0.0,         0.0,         0.0,         0.0
"Line.L70"              ,   2,       -13.1,        -6.6
"Line.L71"              ,   1,         8.8,         4.4,         0.0,         0.0,         0.0,         0.0
"Line.L71"              ,   2,        -8.8,        -4.4
"Line.L72"              ,   1,        26.3,        13.2,         0.0,         0.0,         0.0,         0.0
"Line.L72"              ,   2,       -26.3,       -13.1
"Line.L73"              ,   1,       164.0,      -154.2,         0.0,         0.0,         0.0,         0.0
"Line.L73"              ,   2,      -163.9,       154.5
"Line.L74"              ,   1,        17.5,         8.8,         0.0,         0.0,         0.0,         0.0
"Line.L74"              ,   2,       -17.5,        -8.8
"Line.L75"              ,   1,         8.8,         4.4,         0.0,         0.0,         0.0,         0.0
"Line.L75"              ,   2,        -8.8,        -4.4
"Line.L76"              ,   1,        53.2,      -172.4,         0.0,         0.0,         0.0,         0.0
"Line.L76"              ,   2,       -53.1,       172.7
"Line.L77"              ,   1,        57.0,       -21.4,         0.0,         0.0,         0.0,         0.0
"Line.L77"              ,   2,       -57.0,        21.5
"Line.L78"              ,   1,        44.3,      -177.1,         0.0,         0.0,         0.0,         0.0
"Line.L78"              ,   2,       -44.3,       177.2
"Line.L79"              ,   1,         8.8,         4.4,         0.0,         0.0,         0.0,         0.0
"Line.L79"              ,   2,        -8.8,        -4.4
"Line.L80"              ,   1,        35.5,      -181.6,         0.0,         0.0,         0.0,         0.0
"Line.L80"              ,   2,       -35.3,       181.9
"Line.L81"              ,   1,        26.6,      -186.3,         0.0,         0.0,         0.0,         0.0
"Line.L81"              ,   2,       -26.5,       186.4
"Line.L82"              ,   1,        13.3,      -193.0,         0.0,         0.0,         0.0,         0.0
"Line.L82"              ,   2,       -13.2,       193.2
"Line.L83"              ,   1,        13.1,         6.6,         0.0,         0.0,         0.0,         0.0
"Line.L83"              ,   2,       -13.1,        -6.6
"Line.L84"              ,   1,         4.5,      -197.6,         0.0,         0.0,         0.0,         0.0
"Line.L84"              ,   2,        -4.4,       197.8
"Line.L85"              ,   1,         8.8,         4.4,         0.0,         0.0,         0.0,         0.0
"Line.L85"              ,   2,        -8.8,        -4.4
"Line.L86"              ,   1,        52.6,       -23.7,         0.0,         0.0,         0.0,         0.0
"Line.L86"              ,   2,       -52.6,        23.7
"Line.L87"              ,   1,         8.8,       -12.3,         0.0,         0.0,         0.0,         0.0
"Line.L87"              ,   2,        -8.8,        12.3
"Line.L88"              ,   1,        35.1,       -15.8,         0.0,         0.0,         0.0,         0.0
"Line.L88"              ,   2,       -35.0,        15.8
"Line.L89"              ,   1,         8.8,       -12.3,         0.0,         0.0,         0.0,         0.0
"Line.L89"              ,   2,        -8.8,        12.3
"Line.L90"              ,   1,        26.3,        -3.5,         0.0,         0.0,         0.0,         0.0
"Line.L90"              ,   2,       -26.3,         3.5
"Line.L91"              ,   1,         8.8,       -12.3,         0.0,         0.0,         0.0,         0.0
"Line.L91"              ,   2,        -8.8,        12.3
"Line.L92"              ,   1,        17.5,         8.8,         0.0,         0.0,         0.0,         0.0
"Line.L92"              ,   2,       -17.5,        -8.8
"Line.L93"              ,   1,         8.8,         4.4,         0.0,         0.0,         0.0,         0.0
"Line.L93"              ,   2,        -8.8,        -4.4
"Line.L94"              ,   1,         8.8,         4.4,         0.0,         0.0,         0.0,         0.0
"Line.L94"              ,   2,        -8.8,        -4.4
"Line.L95"              ,   1,         4.4,         2.2,         0.0,         0.0,         0.0,         0.0
"Line.L95"              ,   2,        -4.4,        -2.2
"Line.L96"              ,   1,        26.3,        13.1,         0.0,         0.0,         0.0,         0.0
"Line.L96"              ,   2,       -26.3,       -13.1
"Line.L97"              ,   1,        17.5,         8.8,         0.0,         0.0,         0.0,         0.0
"Line.L97"              ,   2,       -17.5,        -8.8
"Line.L98"              ,   1,         8.8,         4.4,         0.0,         0.0,         0.0,         0.0
"Line.L98"              ,   2,        -8.8,        -4.4
"Line.L99"              ,   1,         0.0,        -0.0,         0.0,         0.0,         0.0,         0.0
"Line.L99"              ,   2,         0.0,         0.0
"Line.L118"             ,   1,        70.2,        35.1,         0.0,         0.0,         0.0,         0.0
"Line.L118"             ,   2,       -70.2,       -35.1
"Line.L100"             ,   1,        21.9,        11.0,         0.0,         0.0,         0.0,         0.0
"Line.L100"             ,   2,       -21.9,       -11.0
"Line.L101"             ,   1,        48.2,        24.1,         0.0,         0.0,         0.0,         0.0
"Line.L101"             ,   2,       -48.2,       -24.1
"Line.L102"             ,   1,        17.5,         8.8,         0.0,         0.0,         0.0,         0.0
"Line.L102"             ,   2,       -17.5,        -8.8
"Line.L103"             ,   1,         8.8,         4.4,         0.0,         0.0,         0.0,         0.0
"Line.L103"             ,   2,        -8.8,        -4.4
"Line.L104"             ,   1,        17.5,         8.8,         0.0,         0.0,         0.0,         0.0
"Line.L104"             ,   2,       -17.5,        -8.8
"Line.L105"             ,   1,        30.7,        15.4,         0.0,         0.0,         0.0,         0.0
"Line.L105"             ,   2,       -30.7,       -15.4
"Line.L106"             ,   1,         8.8,         4.4,         0.0,         0.0,         0.0,         0.0
"Line.L106"             ,   2,        -8.8,        -4.4
"Line.L107"             ,   1,        30.7,        15.4,         0.0,         0.0,         0.0,         0.0
"Line.L107"             ,   2,       -30.7,       -15.3
"Line.L108"             ,   1,         0.0,        -0.0,         0.0,         0.0,         0.0,         0.0
"Line.L108"             ,   2,        -0.0,        -0.0
"Line.L109"             ,   1,        21.9,        11.0,         0.0,         0.0,         0.0,         0.0
"Line.L109"             ,   2,       -21.9,       -11.0
"Line.L110"             ,   1,         4.4,         2.2,         0.0,         0.0,         0.0,         0.0
"Line.L110"             ,   2,        -4.4,        -2.2
"Line.L111"             ,   1,        17.5,         8.8,         0.0,         0.0,         0.0,         0.0
"Line.L111"             ,   2,       -17.5,        -8.8
"Line.L112"             ,   1,        13.1,         6.6,         0.0,         0.0,         0.0,         0.0
"Line.L112"             ,   2,       -13.1,        -6.6
"Line.L113"             ,   1,         4.4,         2.2,         0.0,         0.0,         0.0,         0.0
"Line.L113"             ,   2,        -4.4,        -2.2
"Line.L114"             ,   1,       165.7,       103.7,         0.0,         0.0,         0.0,         0.0
"Line.L114"             ,   2,      -165.6,      -103.4
"Line.L116"             ,   1,       437.5,        -6.1,         0.0,         0.0,         0.0,         0.0
"Line.L116"             ,   2,      -436.8,         7.7
"Line.L117"             ,   1,       313.6,       -78.4,         0.0,         0.0,         0.0,         0.0
"Line.L117"             ,   2,      -313.2,        79.2
"Line.SW1"              ,   1,       777.5,       196.7,         0.0,         0.0,         0.0,         0.0
"Line.SW1"              ,   2,      -777.5,      -196.7
"Line.SW2"              ,   1,       437.5,        -6.1,         0.0,         0.0,         0.0,         0.0
"Line.SW2"              ,   2,      -437.5,         6.1
"Line.SW3"              ,   1,       165.7,       103.7,         0.0,         0.0,         0.0,         0.0
"Line.SW3"              ,   2,      -165.7,      -103.7
"Line.SW4"              ,   1,       313.6,       -78.4,         0.0,         0.0,         0.0,         0.0
"Line.SW4"              ,   2,      -313.6,        78.4
"Line.SW5"              ,   1,        70.2,        35.1,         0.0,         0.0,         0.0,         0.0
"Line.SW5"              ,   2,       -70.2,       -35.1
"Line.XFM1"             ,   1,         0.0,         0.0,         0.0,         0.0,         0.0,         0.0
"Line.XFM1"             ,   2,         0.0,         0.0
"Transformer.REG1A"     ,   1,       777.5,       196.7,         0.0,         0.0,         0.0,         0.0
"Transformer.REG1A"     ,   2,      -777.5,      -196.7
"Transformer.REG2A"     ,   1,        13.1,         6.6,         0.0,         0.0,         0.0,         0.0
"Transformer.REG2A"     ,   2,       -13.1,        -6.6
"Transformer.REG3A"     ,   1,        17.5,         8.8,         0.0,         0.0,         0.0,         0.0
"Transformer.REG3A"     ,   2,       -17.5,        -8.8
"Transformer.REG4A"     ,   1,       313.6,       -78.4,         0.0,         0.0,         0.0,         0.0
"Transformer.REG4A"     ,   2,      -313.6,        78.4
"Load.S1"               ,   1,         8.8,         4.4
"Load.S2"               ,   1,         4.4,         2.2
"Load.S4"               ,   1,         8.8,         4.4
"Load.S5"               ,   1,         4.4,         2.2
"Load.S6"               ,   1,         8.8,         4.4
"Load.S7"               ,   1,         4.4,         2.2
"Load.S9"               ,   1,         8.8,         4.4
"Load.S10"              ,   1,         4.4,         2.2
"Load.S11"              ,   1,         8.8,         4.4
"Load.S12"              ,   1,         4.4,         2.2
"Load.S16"              ,   1,         8.8,         4.4
"Load.S17"              ,   1,         4.4,         2.2
"Load.S19"              ,   1,         8.8,         4.4
"Load.S20"              ,   1,         8.8,         4.4
"Load.S22"              ,   1,         8.8,         4.4
"Load.S24"              ,   1,         8.8,         4.4
"Load.S28"              ,   1,         8.8,         4.4
"Load.S29"              ,   1,         8.8,         4.4
"Load.S30"              ,   1,         8.8,         4.4
"Load.S31"              ,   1,         4.4,         2.2
"Load.S32"              ,   1,         4.4,         2.2
"Load.S33"              ,   1,         8.8,         4.4
"Load.S34"              ,   1,         8.8,         4.4
"Load.S35"              ,   1,         8.8,         4.4
"Load.S37"              ,   1,         8.8,         4.4
"Load.S38"              ,   1,         4.4,         2.2
"Load.S39"              ,   1,         4.4,         2.2
"Load.S41"              ,   1,         4.4,         2.2
"Load.S42"              ,   1,         4.4,         2.2
"Load.S43"              ,   1,         8.8,         4.4
"Load.S45"              ,   1,         4.4,         2.2
"Load.S46"              ,   1,         4.4,         2.2
"Load.S47"              ,   1,        23.0,        16.4
"Load.S48"              ,   1,        46.0,        32.9
"Load.S49"              ,   1,        30.7,        20.8
"Load.S50"              ,   1,         8.8,         4.4
"Load.S51"              ,   1,         4.4,         2.2
"Load.S52"              ,   1,         8.8,         4.4
"Load.S53"              ,   1,         8.8,         4.4
"Load.S55"              ,   1,         4.4,         2.2
"Load.S56"              ,   1,         4.4,         2.2
"Load.S58"              ,   1,         4.4,         2.2
"Load.S59"              ,   1,         4.4,         2.2
"Load.S60"              ,   1,         4.4,         2.2
"Load.S62"              ,   1,         8.8,         4.4
"Load.S63"              ,   1,         8.8,         4.4
"Load.S64"              ,   1,        16.4,         7.7
"Load.S65"              ,   1,        30.7,        21.9
"Load.S66"              ,   1,        16.4,         7.7
"Load.S68"              ,   1,         4.4,         2.2
"Load.S69"              ,   1,         8.8,         4.4
"Load.S70"              ,   1,         4.4,         2.2
"Load.S71"              ,   1,         8.8,         4.4
"Load.S73"              ,   1,         8.8,         4.4
"Load.S74"              ,   1,         8.8,         4.4
"Load.S75"              ,   1,         8.8,         4.4
"Load.S76"              ,   1,        53.7,        39.4
"Load.S77"              ,   1,         8.8,         4.4
"Load.S79"              ,   1,         8.8,         4.4
"Load.S80"              ,   1,         8.8,         4.4
"Load.S82"              ,   1,         8.8,         4.4
"Load.S83"              ,   1,         4.4,         2.2
"Load.S84"              ,   1,         4.4,         2.2
"Load.S85"              ,   1,         8.8,         4.4
"Load.S86"              ,   1,         4.4,         2.2
"Load.S87"              ,   1,         8.8,         4.4
"Load.S88"              ,   1,         8.8,         4.4
"Load.S90"              ,   1,         8.8,         4.4
"Load.S92"              ,   1,         8.8,         4.4
"Load.S94"              ,   1,         8.8,         4.4
"Load.S95"              ,   1,         4.4,         2.2
"Load.S96"              ,   1,         4.4,         2.2
"Load.S98"              ,   1,         8.8,         4.4
"Load.S99"              ,   1,         8.8,         4.4
"Load.S100"             ,   1,         8.8,         4.4
"Load.S102"             ,   1,         4.4,         2.2
"Load.S103"             ,   1,         8.8,         4.4
"Load.S104"             ,   1,         8.8,         4.4
"Load.S106"             ,   1,         8.8,         4.4
"Load.S107"             ,   1,         8.8,         4.4
"Load.S109"             ,   1,         8.8,         4.4
"Load.S111"             ,   1,         4.4,         2.2
"Load.S112"             ,   1,         4.4,         2.2
"Load.S113"             ,   1,         8.8,         4.4
"Load.S114"             ,   1,         4.4,         2.2
"Generator.C83"         ,   1,         0.0,      -200.0
"Generator.C88"         ,   1,         0.0,       -16.7
"Generator.C90"         ,   1,         0.0,       -16.7
"Generator.C92"         ,   1,         0.0,       -16.7
